Circuit: * C:\Users\Mauricio\Documents\GitHub\Sintesis_de_Redes_Activas\Lab1\Circuito1\Circuito1.asc

Early termination of direct N-R iteration.
Direct Newton iteration failed to find .op point.  (Use ".option noopiter" to skip.)
Starting Gmin stepping
Gmin = 10
vernier = 0.5
vernier = 0.25
vernier = 0.125
vernier = 0.0625
Gmin = 8.61953
vernier = 0.03125
vernier = 0.015625
vernier = 0.0078125
vernier = 0.00390625
Gmin = 8.47038
vernier = 0.00195312
vernier = 0.000976562
vernier = 0.000488281
Gmin = 0
Gmin stepping succeeded in finding the operating point.


Date: Wed Dec 20 15:10:02 2023
Total elapsed time: 0.374 seconds.

tnom = 27
temp = 27
method = modified trap
totiter = 5121
traniter = 3728
tranpoints = 1641
accept = 1430
rejected = 211
matrix size = 58
fillins = 227
solver = Normal
Avg thread counts: 1.1/1.2/1.2/1.1
Matrix Compiler1: 19.85 KB object code size  6.2/4.7/[1.3]
Matrix Compiler2: 8.62 KB object code size  2.2/1.8/[0.9]

