Circuit: * E:\Materias en curso\Sinstesis de Redes Activas\2023\Laboratorios\TP1\Circuito1\Circuito1.asc

Early termination of direct N-R iteration.
Direct Newton iteration failed to find .op point.  (Use ".option noopiter" to skip.)
Starting Gmin stepping
Gmin = 10
vernier = 0.5
vernier = 0.25
vernier = 0.125
vernier = 0.0625
Gmin = 8.61953
vernier = 0.03125
vernier = 0.015625
vernier = 0.0078125
vernier = 0.00390625
Gmin = 8.47038
vernier = 0.00195312
vernier = 0.000976562
vernier = 0.000488281
Gmin = 0
Gmin stepping succeeded in finding the operating point.


Date: Fri Dec  1 22:39:24 2023
Total elapsed time: 0.317 seconds.

tnom = 27
temp = 27
method = modified trap
totiter = 3491
traniter = 2098
tranpoints = 1050
accept = 1049
rejected = 1
matrix size = 58
fillins = 227
solver = Normal
Avg thread counts: 1.1/1.3/1.3/1.1
Matrix Compiler1: 19.85 KB object code size  5.6/4.0/[1.5]
Matrix Compiler2: 8.62 KB object code size  1.3/1.4/[0.8]

