Circuit: * C:\Users\Mauricio\Documents\GitHub\Sintesis_de_Redes_Activas\Lab1\Circuito4\Circuito4.asc

Direct Newton iteration for .op point succeeded.

Date: Wed Dec  6 14:22:48 2023
Total elapsed time: 0.156 seconds.

tnom = 27
temp = 27
method = modified trap
totiter = 2828
traniter = 2802
tranpoints = 1185
accept = 1123
rejected = 62
matrix size = 34
fillins = 38
solver = Normal
Avg thread counts: 1.1/1.3/1.2/1.1
Matrix Compiler1: 3.41 KB object code size  1.4/1.0/[0.7]
Matrix Compiler2: 3.35 KB object code size  0.7/1.1/[0.5]

