Circuit: * E:\Materias en curso\Sinstesis de Redes Activas\2023\Laboratorios\TP1\Circuito4\Circuito4.asc

Direct Newton iteration for .op point succeeded.

Date: Wed Nov 29 18:33:32 2023
Total elapsed time: 0.139 seconds.

tnom = 27
temp = 27
method = modified trap
totiter = 2108
traniter = 2082
tranpoints = 1042
accept = 1042
rejected = 0
matrix size = 34
fillins = 38
solver = Normal
Avg thread counts: 1.1/1.3/1.3/1.1
Matrix Compiler1: 3.41 KB object code size  1.8/1.1/[0.4]
Matrix Compiler2: 3.35 KB object code size  0.8/1.3/[0.5]

