Circuit: * C:\Users\Mauricio\Documents\GitHub\Sintesis_de_Redes_Activas\Lab1\Circuito4\Circuito4.asc

Direct Newton iteration for .op point succeeded.

Date: Thu Dec  7 17:04:42 2023
Total elapsed time: 0.092 seconds.

tnom = 27
temp = 27
method = modified trap
totiter = 4071
traniter = 4045
tranpoints = 1433
accept = 1286
rejected = 147
matrix size = 34
fillins = 37
solver = Normal
Avg thread counts: 1.1/1.2/1.2/1.1
Matrix Compiler1: 3.36 KB object code size  1.7/1.2/[0.4]
Matrix Compiler2: 3.34 KB object code size  1.2/1.3/[0.4]

