Circuit: * E:\Materias en curso\Sinstesis de Redes Activas\Trabajos Practicos\TP1\Circuito4\Draft1.asc

Direct Newton iteration for .op point succeeded.

Date: Fri Sep  8 11:18:44 2023
Total elapsed time: 0.441 seconds.

tnom = 27
temp = 27
method = modified trap
totiter = 80033
traniter = 80030
tranpoints = 40016
accept = 24018
rejected = 15998
matrix size = 13
fillins = 2
solver = Normal
Avg thread counts: 1.0/1.0/1.0/1.0
Matrix Compiler1: 622 bytes object code size  0.5/0.3/[0.2]
Matrix Compiler2: 1.08 KB object code size  0.3/0.5/[0.2]

