Circuit: * C:\Users\Mauricio\Documents\GitHub\Sintesis_de_Redes_Activas\Lab1\Circuito2\Circuito2.asc

Direct Newton iteration for .op point succeeded.

Date: Sat Dec  2 11:15:14 2023
Total elapsed time: 0.108 seconds.

tnom = 27
temp = 27
method = modified trap
totiter = 2109
traniter = 2096
tranpoints = 1049
accept = 1048
rejected = 1
matrix size = 32
fillins = 52
solver = Normal
Avg thread counts: 1.1/1.3/1.3/1.1
Matrix Compiler1: 4.22 KB object code size  2.2/1.6/[0.6]
Matrix Compiler2: 3.50 KB object code size  1.1/1.7/[0.6]

