Circuit: * C:\Users\Mauricio\Documents\GitHub\Sintesis_de_Redes_Activas\Lab1\Circuito2\Circuito2.asc

Direct Newton iteration for .op point succeeded.

Date: Sun Dec  3 01:33:29 2023
Total elapsed time: 0.147 seconds.

tnom = 27
temp = 27
method = modified trap
totiter = 2107
traniter = 2094
tranpoints = 1048
accept = 1047
rejected = 1
matrix size = 32
fillins = 52
solver = Normal
Avg thread counts: 1.1/1.3/1.3/1.1
Matrix Compiler1: 4.22 KB object code size  3.0/1.4/[0.6]
Matrix Compiler2: 3.50 KB object code size  1.1/1.4/[0.4]

