Circuit: * E:\Materias en curso\Sinstesis de Redes Activas\2023\Laboratorios\TP1\Circuito2\Circuito2.asc

Direct Newton iteration for .op point succeeded.

Date: Tue Nov 28 23:26:14 2023
Total elapsed time: 0.188 seconds.

tnom = 27
temp = 27
method = modified trap
totiter = 2095
traniter = 2082
tranpoints = 1042
accept = 1042
rejected = 0
matrix size = 31
fillins = 37
solver = Normal
Avg thread counts: 1.1/1.3/1.3/1.1
Matrix Compiler1: 3.13 KB object code size  1.5/1.0/[0.4]
Matrix Compiler2: 3.09 KB object code size  1.0/0.8/[0.5]

