Circuit: * E:\Materias en curso\Sinstesis de Redes Activas\2023\Laboratorios\TP4\VFA-VFA.asc

Direct Newton iteration failed to find .op point.  (Use ".option noopiter" to skip.)
Starting Gmin stepping
Gmin = 10
vernier = 0.5
vernier = 0.25
vernier = 0.125
Gmin = 6.49
vernier = 0.0625
vernier = 0.03125
vernier = 0.015625
vernier = 0.0078125
Gmin = 6.55141
vernier = 0.00390625
vernier = 0.00195312
vernier = 0.000976562
vernier = 0.000488281
Gmin = 6.54342
Gmin = 0
Gmin stepping failed

Starting source stepping with srcstepmethod=0
Source Step = 3.0303%
Source Step = 33.3333%
Source Step = 63.6364%
Source Step = 88.6364%
vernier = 0.0625
Source Step = 88.3049%
Source Step = 88.7784%
Source Step = 89.2519%
Source Step = 89.7254%
Source Step = 90.1989%
vernier = 0.0234375
Source Step = 90.8617%
Source Step = 91.572%
Source Step = 92.2822%
Source Step = 92.9924%
Source Step = 93.7027%
vernier = 0.0351562
Source Step = 94.6615%
Source Step = 95.7268%
Source Step = 96.7921%
Source Step = 97.8575%
Source Step = 98.9228%
vernier = 0.0527344
Source stepping succeeded in finding the operating point.


Date: Thu Nov 30 08:55:34 2023
Total elapsed time: 0.501 seconds.

tnom = 27
temp = 27
method = modified trap
totiter = 7261
traniter = 4345
tranpoints = 1481
accept = 1367
rejected = 114
matrix size = 92
fillins = 351
solver = Normal
Avg thread counts: 1.1/1.2/1.2/1.1
Matrix Compiler1: 21.03 KB object code size  7.4/5.7/[1.8]
Matrix Compiler2: 14.15 KB object code size  3.0/2.3/[0.9]

