Circuit: * E:\Materias en curso\Sinstesis de Redes Activas\2023\Laboratorios\TP4\VFA-CFA.asc

Direct Newton iteration failed to find .op point.  (Use ".option noopiter" to skip.)
Starting Gmin stepping
Gmin = 10
vernier = 0.5
vernier = 0.25
vernier = 0.125
Gmin = 6.68666
vernier = 0.0625
vernier = 0.03125
vernier = 0.015625
vernier = 0.0078125
vernier = 0.00390625
Gmin = 6.84217
vernier = 0.00195312
vernier = 0.000976562
vernier = 0.000488281
Gmin = 0
Gmin = 0
Gmin stepping failed

Starting source stepping with srcstepmethod=0
Source Step = 3.0303%
Source Step = 33.3333%
Source Step = 63.6364%
Source Step = 88.6364%
Source Step = 96.2121%
Source stepping succeeded in finding the operating point.


Date: Thu Nov 30 09:05:53 2023
Total elapsed time: 0.396 seconds.

tnom = 27
temp = 27
method = modified trap
totiter = 6474
traniter = 4319
tranpoints = 1469
accept = 1358
rejected = 111
matrix size = 93
fillins = 124
solver = Normal
Avg thread counts: 1.1/1.2/1.2/1.1
Matrix Compiler1: 9.66 KB object code size  4.4/3.3/[1.0]
Matrix Compiler2: 9.96 KB object code size  2.3/2.8/[0.9]

