Circuit: * C:\Users\Mauricio\Documents\GitHub\Sintesis_de_Redes_Activas\Lab4\VFA-VFA.asc

Early termination of direct N-R iteration.
Direct Newton iteration failed to find .op point.  (Use ".option noopiter" to skip.)
Starting Gmin stepping
Gmin = 10
vernier = 0.5
vernier = 0.25
vernier = 0.125
vernier = 0.0625
Gmin = 8.61953
vernier = 0.03125
vernier = 0.015625
vernier = 0.0078125
vernier = 0.00390625
Gmin = 8.47038
vernier = 0.00195312
vernier = 0.000976562
vernier = 0.000488281
Gmin = 0
Gmin stepping failed

Starting source stepping with srcstepmethod=0
Source Step = 3.0303%
Source Step = 33.3333%
Source Step = 63.6364%
Source Step = 93.9394%
Source stepping succeeded in finding the operating point.


Date: Sat Dec  2 13:30:43 2023
Total elapsed time: 0.316 seconds.

tnom = 27
temp = 27
method = trap
totiter = 1626
traniter = 0
tranpoints = 0
accept = 0
rejected = 0
matrix size = 56
fillins = 315
solver = Normal
Avg thread counts: 2.1/0.0/4.0/1.2
Matrix Compiler1:    1539 opcodes
Matrix Compiler2: 9.97 KB object code size  2.5/3.7/[1.1]

