Circuit: * C:\Users\Mauricio\Documents\GitHub\Sintesis_de_Redes_Activas\Lab2\tp2 _b.asc

WARNING: Less than two connections to node n006.  This node is used by ri_2.
WARNING: Less than two connections to node nc_01.  This node is used by ri.
WARNING: Less than two connections to node nc_02.  This node is used by r6.
WARNING: Less than two connections to node nc_03.  This node is used by r7.
Direct Newton iteration for .op point succeeded.

Date: Sat Dec  9 17:46:56 2023
Total elapsed time: 0.106 seconds.

tnom = 27
temp = 27
method = modified trap
totiter = 2095
traniter = 2082
tranpoints = 1042
accept = 1042
rejected = 0
matrix size = 41
fillins = 47
solver = Normal
Avg thread counts: 1.1/1.3/1.3/1.1
Matrix Compiler1: 4.29 KB object code size  2.8/1.5/[0.5]
Matrix Compiler2: 3.89 KB object code size  1.2/1.9/[0.5]

