Circuit: * E:\Materias en curso\Sinstesis de Redes Activas\2023\Laboratorios\TP2\tp2 _b.asc

Direct Newton iteration for .op point succeeded.

Date: Thu Nov 30 00:03:05 2023
Total elapsed time: 0.142 seconds.

tnom = 27
temp = 27
method = modified trap
totiter = 2095
traniter = 2082
tranpoints = 1042
accept = 1042
rejected = 0
matrix size = 36
fillins = 47
solver = Normal
Avg thread counts: 1.1/1.3/1.3/1.1
Matrix Compiler1: 4.22 KB object code size  2.7/1.6/[0.6]
Matrix Compiler2: 3.61 KB object code size  1.0/1.3/[0.6]

