Circuit: * E:\Materias en curso\Sinstesis de Redes Activas\2023\Laboratorios\TP2\tp2.asc

Direct Newton iteration for .op point succeeded.

Date: Wed Nov 29 19:41:17 2023
Total elapsed time: 0.138 seconds.

tnom = 27
temp = 27
method = modified trap
totiter = 2095
traniter = 2082
tranpoints = 1042
accept = 1042
rejected = 0
matrix size = 35
fillins = 38
solver = Normal
Avg thread counts: 1.1/1.3/1.3/1.1
Matrix Compiler1: 3.38 KB object code size  1.3/0.6/[0.4]
Matrix Compiler2: 3.39 KB object code size  0.5/0.7/[0.4]

