Circuit: * C:\Users\Mauricio\Documents\GitHub\Sintesis_de_Redes_Activas\Lab2\tp2_a.asc

WARNING: Less than two connections to node n003.  This node is used by r2.
WARNING: Less than two connections to node nc_01.  This node is used by ri.
Direct Newton iteration for .op point succeeded.

Date: Wed Dec 20 17:20:17 2023
Total elapsed time: 0.152 seconds.

tnom = 27
temp = 27
method = modified trap
totiter = 4089
traniter = 4076
tranpoints = 2039
accept = 1666
rejected = 373
matrix size = 38
fillins = 40
solver = Normal
Avg thread counts: 1.1/1.1/1.1/1.1
Matrix Compiler1: 3.52 KB object code size  1.6/1.0/[0.4]
Matrix Compiler2: 3.59 KB object code size  0.8/1.3/[0.4]

