Circuit: * E:\Materias en curso\Sinstesis de Redes Activas\2023\Laboratorios\TP2\tp2_a.asc

Direct Newton iteration for .op point succeeded.

Date: Thu Nov 30 01:44:56 2023
Total elapsed time: 0.173 seconds.

tnom = 27
temp = 27
method = modified trap
totiter = 2778
traniter = 2765
tranpoints = 1156
accept = 1101
rejected = 55
matrix size = 37
fillins = 38
solver = Normal
Avg thread counts: 1.1/1.3/1.3/1.1
Matrix Compiler1: 3.45 KB object code size  0.9/0.8/[0.4]
Matrix Compiler2: 3.55 KB object code size  0.5/0.9/[0.5]

