Circuit: * C:\Users\Mauricio\Documents\GitHub\Sintesis_de_Redes_Activas\Lab2\tp2_a.asc

WARNING: Less than two connections to node vos.  This node is used by vos.
Direct Newton iteration for .op point succeeded.

Date: Sat Dec  9 16:46:32 2023
Total elapsed time: 0.172 seconds.

tnom = 27
temp = 27
method = modified trap
totiter = 4933
traniter = 4920
tranpoints = 2380
accept = 1907
rejected = 473
matrix size = 37
fillins = 40
solver = Normal
Avg thread counts: 1.1/1.1/1.1/1.1
Matrix Compiler1: 3.53 KB object code size  1.0/0.8/[0.4]
Matrix Compiler2: off  [0.5]/1.1/0.7

