Circuit: * C:\Users\Mauricio\Documents\GitHub\Sintesis_de_Redes_Activas\Lab1\Circuito3\Circuito3.asc

Early termination of direct N-R iteration.
Direct Newton iteration failed to find .op point.  (Use ".option noopiter" to skip.)
Starting Gmin stepping
Gmin = 10
vernier = 0.5
Gmin = 1.86414
vernier = 0.25
vernier = 0.125
vernier = 0.0625
vernier = 0.03125
Gmin = 1.55954
vernier = 0.015625
vernier = 0.0078125
vernier = 0.00390625
Gmin = 1.54142
vernier = 0.00195312
vernier = 0.000976562
vernier = 0.000488281
Gmin = 0
Gmin stepping succeeded in finding the operating point.


Date: Sat Dec  2 19:16:56 2023
Total elapsed time: 0.360 seconds.

tnom = 27
temp = 27
method = modified trap
totiter = 4880
traniter = 3410
tranpoints = 1501
accept = 1350
rejected = 151
matrix size = 59
fillins = 334
solver = Normal
Avg thread counts: 1.1/1.2/1.2/1.1
Matrix Compiler1: 23.45 KB object code size  6.9/5.6/[1.9]
Matrix Compiler2: 10.60 KB object code size  1.6/1.4/[0.6]

