Questionable use of curly braces in "vin vin 0 sine(0 {x} 1k)"
    Error: undefined symbol in: "[x]"
Circuit: * C:\Users\Mauricio\Documents\GitHub\Sintesis_de_Redes_Activas\Lab1\Circuito3\Circuito3.asc

Fatal Error: Missing model value for Step
