Circuit: * E:\Materias en curso\Sinstesis de Redes Activas\Trabajos Practicos\TP1\Circuito3\Draft1.asc

Direct Newton iteration for .op point succeeded.

Date: Tue Sep  5 13:28:11 2023
Total elapsed time: 1.876 seconds.

tnom = 27
temp = 27
method = modified trap
totiter = 358786
traniter = 358760
tranpoints = 95060
accept = 64054
rejected = 31006
matrix size = 34
fillins = 37
solver = Normal
Avg thread counts: 1.0/1.0/1.0/1.0
Matrix Compiler1: 3.36 KB object code size  1.3/1.2/[0.6]
Matrix Compiler2: 3.34 KB object code size  0.7/0.9/[0.4]

